/*--------------------------------*- C++ -*----------------------------------*\
| =========                 |                                                 |
| \\      /  F ield         | OpenFOAM: The Open Source CFD Toolbox           |
|  \\    /   O peration     | Version:  2.4.0                                 |
|   \\  /    A nd           | Web:      www.OpenFOAM.org                      |
|    \\/     M anipulation  |                                                 |
\*---------------------------------------------------------------------------*/
FoamFile
{
    version     2.0;
    format      ascii;
    class       polyBoundaryMesh;
    location    "constant/polyMesh";
    object      boundary;
}
// * * * * * * * * * * * * * * * * * * * * * * * * * * * * * * * * * * * * * //

5
(
    top
    {
        type            wall;
        inGroups        1(wall);
        nFaces          1;
        startFace       99;
    }
    bottom
    {
        type            wall;
        inGroups        1(wall);
        nFaces          1;
        startFace       100;
    }
    inlet
    {
        type            patch;
        nFaces          100;
        startFace       101;
    }
    outlet
    {
        type            patch;
        nFaces          100;
        startFace       201;
    }
    frontAndBack
    {
        type            empty;
        inGroups        1(empty);
        nFaces          200;
        startFace       301;
    }
)

// ************************************************************************* //
